*SPEF "ieee 1481-1999"
*DESIGN "uart_tx"
*DATE "11:11:11 Fri 11 11, 1111"
*VENDOR "OpenRCX"
*PROGRAM "Parallel Extraction"
*VERSION "1.0"
*DESIGN_FLOW "NAME_SCOPE LOCAL" "PIN_CAP NONE"
*DIVIDER /
*DELIMITER :
*BUS_DELIMITER []
*T_UNIT 1 NS
*C_UNIT 1 PF
*R_UNIT 1 OHM
*L_UNIT 1 HENRY

*NAME_MAP
*3 clk
*4 data_in[0]
*5 data_in[1]
*6 data_in[2]
*7 data_in[3]
*8 data_in[4]
*9 data_in[5]
*10 data_in[6]
*11 data_in[7]
*12 rst_n
*13 tx_busy
*14 tx_out
*15 tx_start
*16 _000_
*17 _001_
*18 _002_
*19 _003_
*20 _004_
*21 _005_
*22 _006_
*23 _007_
*24 _008_
*25 _009_
*26 _010_
*27 _011_
*28 _012_
*29 _013_
*30 _014_
*31 _015_
*32 _016_
*33 _017_
*34 _018_
*35 _019_
*36 _020_
*37 _021_
*38 _022_
*39 _023_
*40 _024_
*41 _025_
*42 _026_
*43 _027_
*44 _028_
*45 _029_
*46 _030_
*47 _031_
*48 _032_
*49 _033_
*50 _034_
*51 _035_
*52 _036_
*53 _037_
*54 _038_
*55 _039_
*56 _040_
*57 _041_
*58 _042_
*59 _043_
*60 _044_
*61 _045_
*62 _046_
*63 _047_
*64 _048_
*65 _049_
*66 _050_
*67 _051_
*68 _052_
*69 _053_
*70 _054_
*71 _055_
*72 _056_
*73 _057_
*74 _058_
*75 _059_
*76 _060_
*77 _061_
*78 _062_
*79 _063_
*80 _064_
*81 _065_
*82 _066_
*83 _067_
*84 _068_
*85 _069_
*86 _070_
*87 _071_
*88 _072_
*89 _073_
*90 _074_
*91 _075_
*92 _076_
*93 _077_
*94 _078_
*95 _079_
*96 _080_
*97 _081_
*98 _082_
*99 _083_
*100 _084_
*101 _085_
*102 _086_
*103 _087_
*104 _088_
*105 _089_
*106 _090_
*107 _091_
*108 _092_
*109 _093_
*110 _094_
*111 _095_
*112 _096_
*113 _097_
*114 _098_
*115 _099_
*116 _100_
*117 _101_
*118 _102_
*119 _103_
*120 _104_
*121 _105_
*122 _106_
*123 _107_
*124 _108_
*125 _109_
*126 _110_
*127 _111_
*128 bit_idx\[0\]
*129 bit_idx\[1\]
*130 bit_idx\[2\]
*131 clk_cnt\[0\]
*132 clk_cnt\[10\]
*133 clk_cnt\[11\]
*134 clk_cnt\[12\]
*135 clk_cnt\[13\]
*136 clk_cnt\[14\]
*137 clk_cnt\[15\]
*138 clk_cnt\[1\]
*139 clk_cnt\[2\]
*140 clk_cnt\[3\]
*141 clk_cnt\[4\]
*142 clk_cnt\[5\]
*143 clk_cnt\[6\]
*144 clk_cnt\[7\]
*145 clk_cnt\[8\]
*146 clk_cnt\[9\]
*147 clknet_0_clk
*148 clknet_2_0__leaf_clk
*149 clknet_2_1__leaf_clk
*150 clknet_2_2__leaf_clk
*151 clknet_2_3__leaf_clk
*152 data_reg\[0\]
*153 data_reg\[1\]
*154 data_reg\[2\]
*155 data_reg\[3\]
*156 data_reg\[4\]
*157 data_reg\[5\]
*158 data_reg\[6\]
*159 data_reg\[7\]
*160 net1
*161 net10
*162 net11
*163 net12
*164 net13
*165 net14
*166 net15
*167 net16
*168 net17
*169 net18
*170 net19
*171 net2
*172 net20
*173 net21
*174 net22
*175 net23
*176 net24
*177 net25
*178 net26
*179 net27
*180 net28
*181 net29
*182 net3
*183 net30
*184 net31
*185 net32
*186 net33
*187 net34
*188 net35
*189 net36
*190 net37
*191 net38
*192 net39
*193 net4
*194 net40
*195 net41
*196 net42
*197 net5
*198 net6
*199 net7
*200 net8
*201 net9
*202 parity_bit
*203 state\[0\]
*204 state\[1\]
*205 state\[2\]
*206 FILLER_0_0_109
*207 FILLER_0_0_113
*208 FILLER_0_0_119
*209 FILLER_0_0_131
*210 FILLER_0_0_139
*211 FILLER_0_0_141
*212 FILLER_0_0_153
*213 FILLER_0_0_165
*214 FILLER_0_0_169
*215 FILLER_0_0_181
*216 FILLER_0_0_19
*217 FILLER_0_0_193
*218 FILLER_0_0_197
*219 FILLER_0_0_209
*220 FILLER_0_0_221
*221 FILLER_0_0_225
*222 FILLER_0_0_237
*223 FILLER_0_0_245
*224 FILLER_0_0_251
*225 FILLER_0_0_253
*226 FILLER_0_0_265
*227 FILLER_0_0_27
*228 FILLER_0_0_277
*229 FILLER_0_0_281
*230 FILLER_0_0_29
*231 FILLER_0_0_293
*232 FILLER_0_0_305
*233 FILLER_0_0_309
*234 FILLER_0_0_321
*235 FILLER_0_0_333
*236 FILLER_0_0_337
*237 FILLER_0_0_349
*238 FILLER_0_0_361
*239 FILLER_0_0_365
*240 FILLER_0_0_373
*241 FILLER_0_0_378
*242 FILLER_0_0_390
*243 FILLER_0_0_393
*244 FILLER_0_0_405
*245 FILLER_0_0_41
*246 FILLER_0_0_53
*247 FILLER_0_0_57
*248 FILLER_0_0_69
*249 FILLER_0_0_7
*250 FILLER_0_0_81
*251 FILLER_0_0_85
*252 FILLER_0_0_97
*253 FILLER_0_10_109
*254 FILLER_0_10_121
*255 FILLER_0_10_133
*256 FILLER_0_10_139
*257 FILLER_0_10_141
*258 FILLER_0_10_15
*259 FILLER_0_10_153
*260 FILLER_0_10_165
*261 FILLER_0_10_177
*262 FILLER_0_10_189
*263 FILLER_0_10_195
*264 FILLER_0_10_197
*265 FILLER_0_10_209
*266 FILLER_0_10_213
*267 FILLER_0_10_251
*268 FILLER_0_10_253
*269 FILLER_0_10_265
*270 FILLER_0_10_27
*271 FILLER_0_10_29
*272 FILLER_0_10_3
*273 FILLER_0_10_304
*274 FILLER_0_10_325
*275 FILLER_0_10_337
*276 FILLER_0_10_349
*277 FILLER_0_10_361
*278 FILLER_0_10_365
*279 FILLER_0_10_377
*280 FILLER_0_10_389
*281 FILLER_0_10_401
*282 FILLER_0_10_41
*283 FILLER_0_10_53
*284 FILLER_0_10_65
*285 FILLER_0_10_77
*286 FILLER_0_10_83
*287 FILLER_0_10_85
*288 FILLER_0_10_97
*289 FILLER_0_11_105
*290 FILLER_0_11_111
*291 FILLER_0_11_113
*292 FILLER_0_11_125
*293 FILLER_0_11_137
*294 FILLER_0_11_149
*295 FILLER_0_11_15
*296 FILLER_0_11_161
*297 FILLER_0_11_167
*298 FILLER_0_11_169
*299 FILLER_0_11_181
*300 FILLER_0_11_193
*301 FILLER_0_11_205
*302 FILLER_0_11_217
*303 FILLER_0_11_27
*304 FILLER_0_11_278
*305 FILLER_0_11_293
*306 FILLER_0_11_3
*307 FILLER_0_11_321
*308 FILLER_0_11_333
*309 FILLER_0_11_337
*310 FILLER_0_11_349
*311 FILLER_0_11_361
*312 FILLER_0_11_373
*313 FILLER_0_11_385
*314 FILLER_0_11_39
*315 FILLER_0_11_391
*316 FILLER_0_11_393
*317 FILLER_0_11_401
*318 FILLER_0_11_51
*319 FILLER_0_11_55
*320 FILLER_0_11_57
*321 FILLER_0_11_69
*322 FILLER_0_11_81
*323 FILLER_0_11_93
*324 FILLER_0_12_109
*325 FILLER_0_12_121
*326 FILLER_0_12_133
*327 FILLER_0_12_139
*328 FILLER_0_12_141
*329 FILLER_0_12_15
*330 FILLER_0_12_153
*331 FILLER_0_12_165
*332 FILLER_0_12_177
*333 FILLER_0_12_189
*334 FILLER_0_12_195
*335 FILLER_0_12_197
*336 FILLER_0_12_209
*337 FILLER_0_12_217
*338 FILLER_0_12_238
*339 FILLER_0_12_251
*340 FILLER_0_12_27
*341 FILLER_0_12_29
*342 FILLER_0_12_3
*343 FILLER_0_12_303
*344 FILLER_0_12_307
*345 FILLER_0_12_315
*346 FILLER_0_12_327
*347 FILLER_0_12_339
*348 FILLER_0_12_351
*349 FILLER_0_12_363
*350 FILLER_0_12_365
*351 FILLER_0_12_377
*352 FILLER_0_12_389
*353 FILLER_0_12_401
*354 FILLER_0_12_41
*355 FILLER_0_12_53
*356 FILLER_0_12_65
*357 FILLER_0_12_77
*358 FILLER_0_12_83
*359 FILLER_0_12_85
*360 FILLER_0_12_97
*361 FILLER_0_13_105
*362 FILLER_0_13_111
*363 FILLER_0_13_113
*364 FILLER_0_13_125
*365 FILLER_0_13_137
*366 FILLER_0_13_149
*367 FILLER_0_13_15
*368 FILLER_0_13_161
*369 FILLER_0_13_167
*370 FILLER_0_13_169
*371 FILLER_0_13_181
*372 FILLER_0_13_193
*373 FILLER_0_13_205
*374 FILLER_0_13_217
*375 FILLER_0_13_223
*376 FILLER_0_13_225
*377 FILLER_0_13_233
*378 FILLER_0_13_27
*379 FILLER_0_13_3
*380 FILLER_0_13_306
*381 FILLER_0_13_318
*382 FILLER_0_13_330
*383 FILLER_0_13_337
*384 FILLER_0_13_349
*385 FILLER_0_13_361
*386 FILLER_0_13_373
*387 FILLER_0_13_385
*388 FILLER_0_13_39
*389 FILLER_0_13_391
*390 FILLER_0_13_393
*391 FILLER_0_13_405
*392 FILLER_0_13_51
*393 FILLER_0_13_55
*394 FILLER_0_13_57
*395 FILLER_0_13_69
*396 FILLER_0_13_81
*397 FILLER_0_13_93
*398 FILLER_0_14_109
*399 FILLER_0_14_121
*400 FILLER_0_14_133
*401 FILLER_0_14_139
*402 FILLER_0_14_141
*403 FILLER_0_14_15
*404 FILLER_0_14_153
*405 FILLER_0_14_165
*406 FILLER_0_14_177
*407 FILLER_0_14_189
*408 FILLER_0_14_195
*409 FILLER_0_14_197
*410 FILLER_0_14_209
*411 FILLER_0_14_213
*412 FILLER_0_14_234
*413 FILLER_0_14_248
*414 FILLER_0_14_260
*415 FILLER_0_14_27
*416 FILLER_0_14_29
*417 FILLER_0_14_3
*418 FILLER_0_14_303
*419 FILLER_0_14_307
*420 FILLER_0_14_317
*421 FILLER_0_14_329
*422 FILLER_0_14_341
*423 FILLER_0_14_353
*424 FILLER_0_14_361
*425 FILLER_0_14_365
*426 FILLER_0_14_377
*427 FILLER_0_14_389
*428 FILLER_0_14_401
*429 FILLER_0_14_41
*430 FILLER_0_14_53
*431 FILLER_0_14_65
*432 FILLER_0_14_77
*433 FILLER_0_14_83
*434 FILLER_0_14_85
*435 FILLER_0_14_97
*436 FILLER_0_15_105
*437 FILLER_0_15_111
*438 FILLER_0_15_113
*439 FILLER_0_15_125
*440 FILLER_0_15_137
*441 FILLER_0_15_149
*442 FILLER_0_15_15
*443 FILLER_0_15_161
*444 FILLER_0_15_167
*445 FILLER_0_15_169
*446 FILLER_0_15_181
*447 FILLER_0_15_193
*448 FILLER_0_15_205
*449 FILLER_0_15_217
*450 FILLER_0_15_222
*451 FILLER_0_15_253
*452 FILLER_0_15_27
*453 FILLER_0_15_278
*454 FILLER_0_15_289
*455 FILLER_0_15_3
*456 FILLER_0_15_310
*457 FILLER_0_15_322
*458 FILLER_0_15_334
*459 FILLER_0_15_337
*460 FILLER_0_15_349
*461 FILLER_0_15_361
*462 FILLER_0_15_373
*463 FILLER_0_15_385
*464 FILLER_0_15_39
*465 FILLER_0_15_391
*466 FILLER_0_15_393
*467 FILLER_0_15_405
*468 FILLER_0_15_51
*469 FILLER_0_15_55
*470 FILLER_0_15_57
*471 FILLER_0_15_69
*472 FILLER_0_15_81
*473 FILLER_0_15_93
*474 FILLER_0_16_109
*475 FILLER_0_16_121
*476 FILLER_0_16_133
*477 FILLER_0_16_139
*478 FILLER_0_16_141
*479 FILLER_0_16_15
*480 FILLER_0_16_153
*481 FILLER_0_16_165
*482 FILLER_0_16_177
*483 FILLER_0_16_189
*484 FILLER_0_16_195
*485 FILLER_0_16_197
*486 FILLER_0_16_209
*487 FILLER_0_16_262
*488 FILLER_0_16_27
*489 FILLER_0_16_29
*490 FILLER_0_16_3
*491 FILLER_0_16_305
*492 FILLER_0_16_315
*493 FILLER_0_16_327
*494 FILLER_0_16_339
*495 FILLER_0_16_351
*496 FILLER_0_16_363
*497 FILLER_0_16_365
*498 FILLER_0_16_377
*499 FILLER_0_16_389
*500 FILLER_0_16_401
*501 FILLER_0_16_41
*502 FILLER_0_16_53
*503 FILLER_0_16_65
*504 FILLER_0_16_77
*505 FILLER_0_16_83
*506 FILLER_0_16_85
*507 FILLER_0_16_97
*508 FILLER_0_17_105
*509 FILLER_0_17_111
*510 FILLER_0_17_113
*511 FILLER_0_17_125
*512 FILLER_0_17_137
*513 FILLER_0_17_149
*514 FILLER_0_17_15
*515 FILLER_0_17_161
*516 FILLER_0_17_167
*517 FILLER_0_17_169
*518 FILLER_0_17_181
*519 FILLER_0_17_189
*520 FILLER_0_17_217
*521 FILLER_0_17_223
*522 FILLER_0_17_237
*523 FILLER_0_17_27
*524 FILLER_0_17_270
*525 FILLER_0_17_286
*526 FILLER_0_17_3
*527 FILLER_0_17_314
*528 FILLER_0_17_326
*529 FILLER_0_17_334
*530 FILLER_0_17_337
*531 FILLER_0_17_349
*532 FILLER_0_17_361
*533 FILLER_0_17_373
*534 FILLER_0_17_385
*535 FILLER_0_17_39
*536 FILLER_0_17_391
*537 FILLER_0_17_393
*538 FILLER_0_17_405
*539 FILLER_0_17_51
*540 FILLER_0_17_55
*541 FILLER_0_17_57
*542 FILLER_0_17_69
*543 FILLER_0_17_81
*544 FILLER_0_17_93
*545 FILLER_0_18_109
*546 FILLER_0_18_121
*547 FILLER_0_18_133
*548 FILLER_0_18_139
*549 FILLER_0_18_141
*550 FILLER_0_18_15
*551 FILLER_0_18_153
*552 FILLER_0_18_165
*553 FILLER_0_18_177
*554 FILLER_0_18_183
*555 FILLER_0_18_217
*556 FILLER_0_18_221
*557 FILLER_0_18_239
*558 FILLER_0_18_253
*559 FILLER_0_18_260
*560 FILLER_0_18_27
*561 FILLER_0_18_278
*562 FILLER_0_18_29
*563 FILLER_0_18_290
*564 FILLER_0_18_295
*565 FILLER_0_18_3
*566 FILLER_0_18_307
*567 FILLER_0_18_309
*568 FILLER_0_18_321
*569 FILLER_0_18_333
*570 FILLER_0_18_345
*571 FILLER_0_18_357
*572 FILLER_0_18_363
*573 FILLER_0_18_365
*574 FILLER_0_18_377
*575 FILLER_0_18_389
*576 FILLER_0_18_401
*577 FILLER_0_18_41
*578 FILLER_0_18_53
*579 FILLER_0_18_65
*580 FILLER_0_18_77
*581 FILLER_0_18_83
*582 FILLER_0_18_85
*583 FILLER_0_18_97
*584 FILLER_0_19_105
*585 FILLER_0_19_111
*586 FILLER_0_19_113
*587 FILLER_0_19_125
*588 FILLER_0_19_137
*589 FILLER_0_19_149
*590 FILLER_0_19_161
*591 FILLER_0_19_167
*592 FILLER_0_19_169
*593 FILLER_0_19_18
*594 FILLER_0_19_181
*595 FILLER_0_19_193
*596 FILLER_0_19_208
*597 FILLER_0_19_218
*598 FILLER_0_19_222
*599 FILLER_0_19_274
*600 FILLER_0_19_281
*601 FILLER_0_19_285
*602 FILLER_0_19_30
*603 FILLER_0_19_309
*604 FILLER_0_19_321
*605 FILLER_0_19_333
*606 FILLER_0_19_337
*607 FILLER_0_19_349
*608 FILLER_0_19_361
*609 FILLER_0_19_373
*610 FILLER_0_19_385
*611 FILLER_0_19_391
*612 FILLER_0_19_393
*613 FILLER_0_19_405
*614 FILLER_0_19_42
*615 FILLER_0_19_54
*616 FILLER_0_19_57
*617 FILLER_0_19_6
*618 FILLER_0_19_69
*619 FILLER_0_19_81
*620 FILLER_0_19_93
*621 FILLER_0_1_105
*622 FILLER_0_1_111
*623 FILLER_0_1_113
*624 FILLER_0_1_125
*625 FILLER_0_1_137
*626 FILLER_0_1_149
*627 FILLER_0_1_15
*628 FILLER_0_1_161
*629 FILLER_0_1_167
*630 FILLER_0_1_169
*631 FILLER_0_1_181
*632 FILLER_0_1_193
*633 FILLER_0_1_205
*634 FILLER_0_1_217
*635 FILLER_0_1_223
*636 FILLER_0_1_225
*637 FILLER_0_1_237
*638 FILLER_0_1_249
*639 FILLER_0_1_261
*640 FILLER_0_1_27
*641 FILLER_0_1_273
*642 FILLER_0_1_279
*643 FILLER_0_1_281
*644 FILLER_0_1_293
*645 FILLER_0_1_3
*646 FILLER_0_1_305
*647 FILLER_0_1_317
*648 FILLER_0_1_329
*649 FILLER_0_1_335
*650 FILLER_0_1_337
*651 FILLER_0_1_349
*652 FILLER_0_1_361
*653 FILLER_0_1_373
*654 FILLER_0_1_385
*655 FILLER_0_1_39
*656 FILLER_0_1_391
*657 FILLER_0_1_393
*658 FILLER_0_1_405
*659 FILLER_0_1_51
*660 FILLER_0_1_55
*661 FILLER_0_1_57
*662 FILLER_0_1_69
*663 FILLER_0_1_81
*664 FILLER_0_1_93
*665 FILLER_0_20_109
*666 FILLER_0_20_121
*667 FILLER_0_20_133
*668 FILLER_0_20_139
*669 FILLER_0_20_141
*670 FILLER_0_20_15
*671 FILLER_0_20_153
*672 FILLER_0_20_165
*673 FILLER_0_20_177
*674 FILLER_0_20_189
*675 FILLER_0_20_195
*676 FILLER_0_20_204
*677 FILLER_0_20_235
*678 FILLER_0_20_239
*679 FILLER_0_20_253
*680 FILLER_0_20_257
*681 FILLER_0_20_27
*682 FILLER_0_20_29
*683 FILLER_0_20_297
*684 FILLER_0_20_3
*685 FILLER_0_20_305
*686 FILLER_0_20_309
*687 FILLER_0_20_321
*688 FILLER_0_20_333
*689 FILLER_0_20_345
*690 FILLER_0_20_357
*691 FILLER_0_20_363
*692 FILLER_0_20_365
*693 FILLER_0_20_377
*694 FILLER_0_20_389
*695 FILLER_0_20_401
*696 FILLER_0_20_41
*697 FILLER_0_20_53
*698 FILLER_0_20_65
*699 FILLER_0_20_77
*700 FILLER_0_20_83
*701 FILLER_0_20_85
*702 FILLER_0_20_97
*703 FILLER_0_21_105
*704 FILLER_0_21_111
*705 FILLER_0_21_113
*706 FILLER_0_21_125
*707 FILLER_0_21_137
*708 FILLER_0_21_149
*709 FILLER_0_21_15
*710 FILLER_0_21_161
*711 FILLER_0_21_167
*712 FILLER_0_21_169
*713 FILLER_0_21_181
*714 FILLER_0_21_189
*715 FILLER_0_21_218
*716 FILLER_0_21_232
*717 FILLER_0_21_236
*718 FILLER_0_21_257
*719 FILLER_0_21_27
*720 FILLER_0_21_278
*721 FILLER_0_21_292
*722 FILLER_0_21_3
*723 FILLER_0_21_304
*724 FILLER_0_21_316
*725 FILLER_0_21_328
*726 FILLER_0_21_337
*727 FILLER_0_21_349
*728 FILLER_0_21_361
*729 FILLER_0_21_373
*730 FILLER_0_21_385
*731 FILLER_0_21_39
*732 FILLER_0_21_391
*733 FILLER_0_21_393
*734 FILLER_0_21_405
*735 FILLER_0_21_51
*736 FILLER_0_21_55
*737 FILLER_0_21_57
*738 FILLER_0_21_69
*739 FILLER_0_21_81
*740 FILLER_0_21_93
*741 FILLER_0_22_109
*742 FILLER_0_22_121
*743 FILLER_0_22_133
*744 FILLER_0_22_139
*745 FILLER_0_22_141
*746 FILLER_0_22_15
*747 FILLER_0_22_153
*748 FILLER_0_22_165
*749 FILLER_0_22_177
*750 FILLER_0_22_189
*751 FILLER_0_22_195
*752 FILLER_0_22_206
*753 FILLER_0_22_261
*754 FILLER_0_22_27
*755 FILLER_0_22_29
*756 FILLER_0_22_295
*757 FILLER_0_22_3
*758 FILLER_0_22_307
*759 FILLER_0_22_309
*760 FILLER_0_22_321
*761 FILLER_0_22_333
*762 FILLER_0_22_345
*763 FILLER_0_22_357
*764 FILLER_0_22_363
*765 FILLER_0_22_365
*766 FILLER_0_22_377
*767 FILLER_0_22_389
*768 FILLER_0_22_401
*769 FILLER_0_22_41
*770 FILLER_0_22_53
*771 FILLER_0_22_65
*772 FILLER_0_22_77
*773 FILLER_0_22_83
*774 FILLER_0_22_85
*775 FILLER_0_22_97
*776 FILLER_0_23_105
*777 FILLER_0_23_111
*778 FILLER_0_23_113
*779 FILLER_0_23_125
*780 FILLER_0_23_137
*781 FILLER_0_23_149
*782 FILLER_0_23_15
*783 FILLER_0_23_161
*784 FILLER_0_23_167
*785 FILLER_0_23_169
*786 FILLER_0_23_181
*787 FILLER_0_23_189
*788 FILLER_0_23_195
*789 FILLER_0_23_203
*790 FILLER_0_23_234
*791 FILLER_0_23_240
*792 FILLER_0_23_268
*793 FILLER_0_23_27
*794 FILLER_0_23_281
*795 FILLER_0_23_293
*796 FILLER_0_23_3
*797 FILLER_0_23_305
*798 FILLER_0_23_317
*799 FILLER_0_23_329
*800 FILLER_0_23_335
*801 FILLER_0_23_337
*802 FILLER_0_23_349
*803 FILLER_0_23_361
*804 FILLER_0_23_373
*805 FILLER_0_23_385
*806 FILLER_0_23_39
*807 FILLER_0_23_391
*808 FILLER_0_23_393
*809 FILLER_0_23_405
*810 FILLER_0_23_51
*811 FILLER_0_23_55
*812 FILLER_0_23_57
*813 FILLER_0_23_69
*814 FILLER_0_23_81
*815 FILLER_0_23_93
*816 FILLER_0_24_109
*817 FILLER_0_24_121
*818 FILLER_0_24_133
*819 FILLER_0_24_139
*820 FILLER_0_24_141
*821 FILLER_0_24_15
*822 FILLER_0_24_153
*823 FILLER_0_24_165
*824 FILLER_0_24_177
*825 FILLER_0_24_189
*826 FILLER_0_24_195
*827 FILLER_0_24_197
*828 FILLER_0_24_209
*829 FILLER_0_24_214
*830 FILLER_0_24_221
*831 FILLER_0_24_247
*832 FILLER_0_24_251
*833 FILLER_0_24_260
*834 FILLER_0_24_27
*835 FILLER_0_24_272
*836 FILLER_0_24_284
*837 FILLER_0_24_29
*838 FILLER_0_24_296
*839 FILLER_0_24_3
*840 FILLER_0_24_309
*841 FILLER_0_24_321
*842 FILLER_0_24_333
*843 FILLER_0_24_345
*844 FILLER_0_24_357
*845 FILLER_0_24_363
*846 FILLER_0_24_365
*847 FILLER_0_24_377
*848 FILLER_0_24_389
*849 FILLER_0_24_401
*850 FILLER_0_24_41
*851 FILLER_0_24_53
*852 FILLER_0_24_65
*853 FILLER_0_24_77
*854 FILLER_0_24_83
*855 FILLER_0_24_85
*856 FILLER_0_24_97
*857 FILLER_0_25_105
*858 FILLER_0_25_111
*859 FILLER_0_25_113
*860 FILLER_0_25_125
*861 FILLER_0_25_137
*862 FILLER_0_25_149
*863 FILLER_0_25_15
*864 FILLER_0_25_161
*865 FILLER_0_25_167
*866 FILLER_0_25_169
*867 FILLER_0_25_181
*868 FILLER_0_25_193
*869 FILLER_0_25_205
*870 FILLER_0_25_217
*871 FILLER_0_25_223
*872 FILLER_0_25_225
*873 FILLER_0_25_229
*874 FILLER_0_25_238
*875 FILLER_0_25_242
*876 FILLER_0_25_250
*877 FILLER_0_25_262
*878 FILLER_0_25_27
*879 FILLER_0_25_274
*880 FILLER_0_25_281
*881 FILLER_0_25_293
*882 FILLER_0_25_3
*883 FILLER_0_25_305
*884 FILLER_0_25_317
*885 FILLER_0_25_329
*886 FILLER_0_25_335
*887 FILLER_0_25_337
*888 FILLER_0_25_349
*889 FILLER_0_25_361
*890 FILLER_0_25_373
*891 FILLER_0_25_385
*892 FILLER_0_25_39
*893 FILLER_0_25_391
*894 FILLER_0_25_393
*895 FILLER_0_25_405
*896 FILLER_0_25_51
*897 FILLER_0_25_55
*898 FILLER_0_25_57
*899 FILLER_0_25_69
*900 FILLER_0_25_81
*901 FILLER_0_25_93
*902 FILLER_0_26_109
*903 FILLER_0_26_121
*904 FILLER_0_26_133
*905 FILLER_0_26_139
*906 FILLER_0_26_141
*907 FILLER_0_26_15
*908 FILLER_0_26_153
*909 FILLER_0_26_165
*910 FILLER_0_26_177
*911 FILLER_0_26_189
*912 FILLER_0_26_195
*913 FILLER_0_26_197
*914 FILLER_0_26_209
*915 FILLER_0_26_221
*916 FILLER_0_26_233
*917 FILLER_0_26_245
*918 FILLER_0_26_251
*919 FILLER_0_26_253
*920 FILLER_0_26_265
*921 FILLER_0_26_27
*922 FILLER_0_26_277
*923 FILLER_0_26_289
*924 FILLER_0_26_29
*925 FILLER_0_26_3
*926 FILLER_0_26_301
*927 FILLER_0_26_307
*928 FILLER_0_26_309
*929 FILLER_0_26_321
*930 FILLER_0_26_333
*931 FILLER_0_26_345
*932 FILLER_0_26_357
*933 FILLER_0_26_363
*934 FILLER_0_26_365
*935 FILLER_0_26_377
*936 FILLER_0_26_389
*937 FILLER_0_26_401
*938 FILLER_0_26_41
*939 FILLER_0_26_53
*940 FILLER_0_26_65
*941 FILLER_0_26_77
*942 FILLER_0_26_83
*943 FILLER_0_26_85
*944 FILLER_0_26_97
*945 FILLER_0_27_105
*946 FILLER_0_27_111
*947 FILLER_0_27_113
*948 FILLER_0_27_125
*949 FILLER_0_27_137
*950 FILLER_0_27_149
*951 FILLER_0_27_15
*952 FILLER_0_27_161
*953 FILLER_0_27_167
*954 FILLER_0_27_169
*955 FILLER_0_27_181
*956 FILLER_0_27_193
*957 FILLER_0_27_205
*958 FILLER_0_27_217
*959 FILLER_0_27_223
*960 FILLER_0_27_225
*961 FILLER_0_27_237
*962 FILLER_0_27_249
*963 FILLER_0_27_261
*964 FILLER_0_27_27
*965 FILLER_0_27_273
*966 FILLER_0_27_279
*967 FILLER_0_27_281
*968 FILLER_0_27_293
*969 FILLER_0_27_3
*970 FILLER_0_27_305
*971 FILLER_0_27_317
*972 FILLER_0_27_329
*973 FILLER_0_27_335
*974 FILLER_0_27_337
*975 FILLER_0_27_349
*976 FILLER_0_27_361
*977 FILLER_0_27_373
*978 FILLER_0_27_385
*979 FILLER_0_27_39
*980 FILLER_0_27_391
*981 FILLER_0_27_393
*982 FILLER_0_27_405
*983 FILLER_0_27_51
*984 FILLER_0_27_55
*985 FILLER_0_27_57
*986 FILLER_0_27_69
*987 FILLER_0_27_81
*988 FILLER_0_27_93
*989 FILLER_0_28_109
*990 FILLER_0_28_121
*991 FILLER_0_28_133
*992 FILLER_0_28_139
*993 FILLER_0_28_141
*994 FILLER_0_28_15
*995 FILLER_0_28_153
*996 FILLER_0_28_165
*997 FILLER_0_28_177
*998 FILLER_0_28_189
*999 FILLER_0_28_195
*1000 FILLER_0_28_197
*1001 FILLER_0_28_209
*1002 FILLER_0_28_221
*1003 FILLER_0_28_233
*1004 FILLER_0_28_245
*1005 FILLER_0_28_251
*1006 FILLER_0_28_253
*1007 FILLER_0_28_265
*1008 FILLER_0_28_27
*1009 FILLER_0_28_277
*1010 FILLER_0_28_289
*1011 FILLER_0_28_29
*1012 FILLER_0_28_3
*1013 FILLER_0_28_301
*1014 FILLER_0_28_307
*1015 FILLER_0_28_309
*1016 FILLER_0_28_321
*1017 FILLER_0_28_333
*1018 FILLER_0_28_345
*1019 FILLER_0_28_357
*1020 FILLER_0_28_363
*1021 FILLER_0_28_365
*1022 FILLER_0_28_377
*1023 FILLER_0_28_389
*1024 FILLER_0_28_401
*1025 FILLER_0_28_41
*1026 FILLER_0_28_53
*1027 FILLER_0_28_65
*1028 FILLER_0_28_77
*1029 FILLER_0_28_83
*1030 FILLER_0_28_85
*1031 FILLER_0_28_97
*1032 FILLER_0_29_105
*1033 FILLER_0_29_111
*1034 FILLER_0_29_113
*1035 FILLER_0_29_125
*1036 FILLER_0_29_137
*1037 FILLER_0_29_149
*1038 FILLER_0_29_15
*1039 FILLER_0_29_161
*1040 FILLER_0_29_167
*1041 FILLER_0_29_169
*1042 FILLER_0_29_181
*1043 FILLER_0_29_193
*1044 FILLER_0_29_205
*1045 FILLER_0_29_217
*1046 FILLER_0_29_223
*1047 FILLER_0_29_225
*1048 FILLER_0_29_237
*1049 FILLER_0_29_249
*1050 FILLER_0_29_261
*1051 FILLER_0_29_27
*1052 FILLER_0_29_273
*1053 FILLER_0_29_279
*1054 FILLER_0_29_281
*1055 FILLER_0_29_293
*1056 FILLER_0_29_3
*1057 FILLER_0_29_305
*1058 FILLER_0_29_317
*1059 FILLER_0_29_329
*1060 FILLER_0_29_335
*1061 FILLER_0_29_337
*1062 FILLER_0_29_349
*1063 FILLER_0_29_361
*1064 FILLER_0_29_373
*1065 FILLER_0_29_385
*1066 FILLER_0_29_39
*1067 FILLER_0_29_391
*1068 FILLER_0_29_393
*1069 FILLER_0_29_405
*1070 FILLER_0_29_51
*1071 FILLER_0_29_55
*1072 FILLER_0_29_57
*1073 FILLER_0_29_69
*1074 FILLER_0_29_81
*1075 FILLER_0_29_93
*1076 FILLER_0_2_109
*1077 FILLER_0_2_121
*1078 FILLER_0_2_133
*1079 FILLER_0_2_139
*1080 FILLER_0_2_141
*1081 FILLER_0_2_15
*1082 FILLER_0_2_153
*1083 FILLER_0_2_165
*1084 FILLER_0_2_177
*1085 FILLER_0_2_189
*1086 FILLER_0_2_195
*1087 FILLER_0_2_197
*1088 FILLER_0_2_209
*1089 FILLER_0_2_221
*1090 FILLER_0_2_233
*1091 FILLER_0_2_245
*1092 FILLER_0_2_251
*1093 FILLER_0_2_253
*1094 FILLER_0_2_265
*1095 FILLER_0_2_27
*1096 FILLER_0_2_277
*1097 FILLER_0_2_289
*1098 FILLER_0_2_29
*1099 FILLER_0_2_3
*1100 FILLER_0_2_301
*1101 FILLER_0_2_307
*1102 FILLER_0_2_309
*1103 FILLER_0_2_321
*1104 FILLER_0_2_333
*1105 FILLER_0_2_345
*1106 FILLER_0_2_357
*1107 FILLER_0_2_363
*1108 FILLER_0_2_365
*1109 FILLER_0_2_377
*1110 FILLER_0_2_389
*1111 FILLER_0_2_401
*1112 FILLER_0_2_41
*1113 FILLER_0_2_53
*1114 FILLER_0_2_65
*1115 FILLER_0_2_77
*1116 FILLER_0_2_83
*1117 FILLER_0_2_85
*1118 FILLER_0_2_97
*1119 FILLER_0_30_109
*1120 FILLER_0_30_121
*1121 FILLER_0_30_133
*1122 FILLER_0_30_139
*1123 FILLER_0_30_141
*1124 FILLER_0_30_15
*1125 FILLER_0_30_153
*1126 FILLER_0_30_165
*1127 FILLER_0_30_177
*1128 FILLER_0_30_189
*1129 FILLER_0_30_195
*1130 FILLER_0_30_197
*1131 FILLER_0_30_209
*1132 FILLER_0_30_221
*1133 FILLER_0_30_233
*1134 FILLER_0_30_245
*1135 FILLER_0_30_251
*1136 FILLER_0_30_253
*1137 FILLER_0_30_265
*1138 FILLER_0_30_27
*1139 FILLER_0_30_277
*1140 FILLER_0_30_289
*1141 FILLER_0_30_29
*1142 FILLER_0_30_3
*1143 FILLER_0_30_301
*1144 FILLER_0_30_307
*1145 FILLER_0_30_309
*1146 FILLER_0_30_321
*1147 FILLER_0_30_333
*1148 FILLER_0_30_345
*1149 FILLER_0_30_357
*1150 FILLER_0_30_363
*1151 FILLER_0_30_365
*1152 FILLER_0_30_377
*1153 FILLER_0_30_389
*1154 FILLER_0_30_401
*1155 FILLER_0_30_41
*1156 FILLER_0_30_53
*1157 FILLER_0_30_65
*1158 FILLER_0_30_77
*1159 FILLER_0_30_83
*1160 FILLER_0_30_85
*1161 FILLER_0_30_97
*1162 FILLER_0_31_105
*1163 FILLER_0_31_111
*1164 FILLER_0_31_113
*1165 FILLER_0_31_125
*1166 FILLER_0_31_137
*1167 FILLER_0_31_149
*1168 FILLER_0_31_15
*1169 FILLER_0_31_161
*1170 FILLER_0_31_167
*1171 FILLER_0_31_169
*1172 FILLER_0_31_181
*1173 FILLER_0_31_193
*1174 FILLER_0_31_205
*1175 FILLER_0_31_217
*1176 FILLER_0_31_223
*1177 FILLER_0_31_225
*1178 FILLER_0_31_237
*1179 FILLER_0_31_249
*1180 FILLER_0_31_261
*1181 FILLER_0_31_27
*1182 FILLER_0_31_273
*1183 FILLER_0_31_279
*1184 FILLER_0_31_281
*1185 FILLER_0_31_293
*1186 FILLER_0_31_3
*1187 FILLER_0_31_305
*1188 FILLER_0_31_317
*1189 FILLER_0_31_329
*1190 FILLER_0_31_335
*1191 FILLER_0_31_337
*1192 FILLER_0_31_349
*1193 FILLER_0_31_361
*1194 FILLER_0_31_373
*1195 FILLER_0_31_385
*1196 FILLER_0_31_39
*1197 FILLER_0_31_391
*1198 FILLER_0_31_393
*1199 FILLER_0_31_405
*1200 FILLER_0_31_51
*1201 FILLER_0_31_55
*1202 FILLER_0_31_57
*1203 FILLER_0_31_69
*1204 FILLER_0_31_81
*1205 FILLER_0_31_93
*1206 FILLER_0_32_109
*1207 FILLER_0_32_121
*1208 FILLER_0_32_133
*1209 FILLER_0_32_139
*1210 FILLER_0_32_141
*1211 FILLER_0_32_15
*1212 FILLER_0_32_153
*1213 FILLER_0_32_165
*1214 FILLER_0_32_177
*1215 FILLER_0_32_189
*1216 FILLER_0_32_195
*1217 FILLER_0_32_197
*1218 FILLER_0_32_209
*1219 FILLER_0_32_221
*1220 FILLER_0_32_233
*1221 FILLER_0_32_245
*1222 FILLER_0_32_251
*1223 FILLER_0_32_253
*1224 FILLER_0_32_265
*1225 FILLER_0_32_27
*1226 FILLER_0_32_277
*1227 FILLER_0_32_289
*1228 FILLER_0_32_29
*1229 FILLER_0_32_3
*1230 FILLER_0_32_301
*1231 FILLER_0_32_307
*1232 FILLER_0_32_309
*1233 FILLER_0_32_321
*1234 FILLER_0_32_333
*1235 FILLER_0_32_345
*1236 FILLER_0_32_357
*1237 FILLER_0_32_363
*1238 FILLER_0_32_365
*1239 FILLER_0_32_377
*1240 FILLER_0_32_389
*1241 FILLER_0_32_401
*1242 FILLER_0_32_41
*1243 FILLER_0_32_53
*1244 FILLER_0_32_65
*1245 FILLER_0_32_77
*1246 FILLER_0_32_83
*1247 FILLER_0_32_85
*1248 FILLER_0_32_97
*1249 FILLER_0_33_105
*1250 FILLER_0_33_111
*1251 FILLER_0_33_113
*1252 FILLER_0_33_125
*1253 FILLER_0_33_137
*1254 FILLER_0_33_149
*1255 FILLER_0_33_15
*1256 FILLER_0_33_161
*1257 FILLER_0_33_167
*1258 FILLER_0_33_169
*1259 FILLER_0_33_181
*1260 FILLER_0_33_193
*1261 FILLER_0_33_205
*1262 FILLER_0_33_217
*1263 FILLER_0_33_223
*1264 FILLER_0_33_225
*1265 FILLER_0_33_237
*1266 FILLER_0_33_249
*1267 FILLER_0_33_261
*1268 FILLER_0_33_27
*1269 FILLER_0_33_273
*1270 FILLER_0_33_279
*1271 FILLER_0_33_281
*1272 FILLER_0_33_293
*1273 FILLER_0_33_3
*1274 FILLER_0_33_305
*1275 FILLER_0_33_317
*1276 FILLER_0_33_329
*1277 FILLER_0_33_335
*1278 FILLER_0_33_337
*1279 FILLER_0_33_349
*1280 FILLER_0_33_361
*1281 FILLER_0_33_373
*1282 FILLER_0_33_385
*1283 FILLER_0_33_39
*1284 FILLER_0_33_391
*1285 FILLER_0_33_393
*1286 FILLER_0_33_405
*1287 FILLER_0_33_51
*1288 FILLER_0_33_55
*1289 FILLER_0_33_57
*1290 FILLER_0_33_69
*1291 FILLER_0_33_81
*1292 FILLER_0_33_93
*1293 FILLER_0_34_109
*1294 FILLER_0_34_121
*1295 FILLER_0_34_133
*1296 FILLER_0_34_139
*1297 FILLER_0_34_141
*1298 FILLER_0_34_15
*1299 FILLER_0_34_153
*1300 FILLER_0_34_165
*1301 FILLER_0_34_177
*1302 FILLER_0_34_189
*1303 FILLER_0_34_195
*1304 FILLER_0_34_197
*1305 FILLER_0_34_209
*1306 FILLER_0_34_221
*1307 FILLER_0_34_233
*1308 FILLER_0_34_245
*1309 FILLER_0_34_251
*1310 FILLER_0_34_253
*1311 FILLER_0_34_265
*1312 FILLER_0_34_27
*1313 FILLER_0_34_277
*1314 FILLER_0_34_289
*1315 FILLER_0_34_29
*1316 FILLER_0_34_3
*1317 FILLER_0_34_301
*1318 FILLER_0_34_307
*1319 FILLER_0_34_309
*1320 FILLER_0_34_321
*1321 FILLER_0_34_333
*1322 FILLER_0_34_345
*1323 FILLER_0_34_357
*1324 FILLER_0_34_363
*1325 FILLER_0_34_365
*1326 FILLER_0_34_377
*1327 FILLER_0_34_389
*1328 FILLER_0_34_401
*1329 FILLER_0_34_41
*1330 FILLER_0_34_53
*1331 FILLER_0_34_65
*1332 FILLER_0_34_77
*1333 FILLER_0_34_83
*1334 FILLER_0_34_85
*1335 FILLER_0_34_97
*1336 FILLER_0_35_105
*1337 FILLER_0_35_111
*1338 FILLER_0_35_113
*1339 FILLER_0_35_125
*1340 FILLER_0_35_137
*1341 FILLER_0_35_149
*1342 FILLER_0_35_15
*1343 FILLER_0_35_161
*1344 FILLER_0_35_167
*1345 FILLER_0_35_169
*1346 FILLER_0_35_181
*1347 FILLER_0_35_193
*1348 FILLER_0_35_205
*1349 FILLER_0_35_217
*1350 FILLER_0_35_223
*1351 FILLER_0_35_225
*1352 FILLER_0_35_237
*1353 FILLER_0_35_249
*1354 FILLER_0_35_261
*1355 FILLER_0_35_27
*1356 FILLER_0_35_273
*1357 FILLER_0_35_279
*1358 FILLER_0_35_281
*1359 FILLER_0_35_293
*1360 FILLER_0_35_3
*1361 FILLER_0_35_305
*1362 FILLER_0_35_317
*1363 FILLER_0_35_329
*1364 FILLER_0_35_335
*1365 FILLER_0_35_337
*1366 FILLER_0_35_349
*1367 FILLER_0_35_361
*1368 FILLER_0_35_373
*1369 FILLER_0_35_385
*1370 FILLER_0_35_39
*1371 FILLER_0_35_391
*1372 FILLER_0_35_393
*1373 FILLER_0_35_405
*1374 FILLER_0_35_51
*1375 FILLER_0_35_55
*1376 FILLER_0_35_57
*1377 FILLER_0_35_69
*1378 FILLER_0_35_81
*1379 FILLER_0_35_93
*1380 FILLER_0_36_109
*1381 FILLER_0_36_121
*1382 FILLER_0_36_133
*1383 FILLER_0_36_139
*1384 FILLER_0_36_141
*1385 FILLER_0_36_15
*1386 FILLER_0_36_153
*1387 FILLER_0_36_165
*1388 FILLER_0_36_177
*1389 FILLER_0_36_189
*1390 FILLER_0_36_195
*1391 FILLER_0_36_197
*1392 FILLER_0_36_209
*1393 FILLER_0_36_221
*1394 FILLER_0_36_233
*1395 FILLER_0_36_245
*1396 FILLER_0_36_251
*1397 FILLER_0_36_253
*1398 FILLER_0_36_265
*1399 FILLER_0_36_27
*1400 FILLER_0_36_277
*1401 FILLER_0_36_289
*1402 FILLER_0_36_29
*1403 FILLER_0_36_3
*1404 FILLER_0_36_301
*1405 FILLER_0_36_307
*1406 FILLER_0_36_309
*1407 FILLER_0_36_321
*1408 FILLER_0_36_333
*1409 FILLER_0_36_345
*1410 FILLER_0_36_357
*1411 FILLER_0_36_363
*1412 FILLER_0_36_365
*1413 FILLER_0_36_377
*1414 FILLER_0_36_389
*1415 FILLER_0_36_401
*1416 FILLER_0_36_41
*1417 FILLER_0_36_53
*1418 FILLER_0_36_65
*1419 FILLER_0_36_77
*1420 FILLER_0_36_83
*1421 FILLER_0_36_85
*1422 FILLER_0_36_97
*1423 FILLER_0_37_105
*1424 FILLER_0_37_111
*1425 FILLER_0_37_113
*1426 FILLER_0_37_125
*1427 FILLER_0_37_137
*1428 FILLER_0_37_149
*1429 FILLER_0_37_15
*1430 FILLER_0_37_161
*1431 FILLER_0_37_167
*1432 FILLER_0_37_169
*1433 FILLER_0_37_181
*1434 FILLER_0_37_193
*1435 FILLER_0_37_205
*1436 FILLER_0_37_217
*1437 FILLER_0_37_223
*1438 FILLER_0_37_225
*1439 FILLER_0_37_237
*1440 FILLER_0_37_249
*1441 FILLER_0_37_261
*1442 FILLER_0_37_27
*1443 FILLER_0_37_273
*1444 FILLER_0_37_279
*1445 FILLER_0_37_281
*1446 FILLER_0_37_293
*1447 FILLER_0_37_3
*1448 FILLER_0_37_305
*1449 FILLER_0_37_317
*1450 FILLER_0_37_329
*1451 FILLER_0_37_335
*1452 FILLER_0_37_337
*1453 FILLER_0_37_349
*1454 FILLER_0_37_361
*1455 FILLER_0_37_373
*1456 FILLER_0_37_385
*1457 FILLER_0_37_39
*1458 FILLER_0_37_391
*1459 FILLER_0_37_393
*1460 FILLER_0_37_405
*1461 FILLER_0_37_51
*1462 FILLER_0_37_55
*1463 FILLER_0_37_57
*1464 FILLER_0_37_69
*1465 FILLER_0_37_81
*1466 FILLER_0_37_93
*1467 FILLER_0_38_109
*1468 FILLER_0_38_121
*1469 FILLER_0_38_133
*1470 FILLER_0_38_139
*1471 FILLER_0_38_141
*1472 FILLER_0_38_15
*1473 FILLER_0_38_153
*1474 FILLER_0_38_165
*1475 FILLER_0_38_177
*1476 FILLER_0_38_189
*1477 FILLER_0_38_195
*1478 FILLER_0_38_197
*1479 FILLER_0_38_209
*1480 FILLER_0_38_221
*1481 FILLER_0_38_233
*1482 FILLER_0_38_245
*1483 FILLER_0_38_251
*1484 FILLER_0_38_253
*1485 FILLER_0_38_265
*1486 FILLER_0_38_27
*1487 FILLER_0_38_277
*1488 FILLER_0_38_289
*1489 FILLER_0_38_29
*1490 FILLER_0_38_3
*1491 FILLER_0_38_301
*1492 FILLER_0_38_307
*1493 FILLER_0_38_309
*1494 FILLER_0_38_321
*1495 FILLER_0_38_333
*1496 FILLER_0_38_345
*1497 FILLER_0_38_357
*1498 FILLER_0_38_363
*1499 FILLER_0_38_365
*1500 FILLER_0_38_377
*1501 FILLER_0_38_389
*1502 FILLER_0_38_401